100
The is an optional comment line that can be empty. The reason we use H is so particles get smaller in Ovito
H 4.61299 28.4317 32.9899
H 7.52607 10.4933 18.6331
H 6.41422 33.8075 33.9293
H 32.9499 24.715 33.4067
H 3.74077 27.1754 10.1134
H 0.16289 3.82969 21.7839
H 29.8871 17.1608 27.2004
H 12.3017 7.2159 23.2002
H 14.1567 22.9837 16.0582
H 14.3717 5.91981 10.2799
H 27.1476 10.7782 29.7065
H 5.07751 33.8482 27.9856
H 4.26207 26.0057 16.7046
H 22.5958 4.28716 7.15784
H 1.74394 1.2406 13.9172
H 15.5945 16.6018 27.0347
H 31.3557 27.4967 24.0316
H 0.095868 24.1995 21.9269
H 15.5276 26.352 19.5364
H 29.8533 27.5181 0.605281
H 27.9637 27.9496 32.0092
H 14.0514 14.4099 19.7816
H 5.38201 25.9366 7.83667
H 27.5718 33.6591 11.32
H 10.2094 0.460947 7.3969
H 30.8959 28.8903 32.5187
H 26.5215 33.6232 2.3015
H 27.0223 20.2427 24.9522
H 23.673 23.1481 13.3585
H 19.121 7.08481 17.9572
H 13.7635 12.0104 20.1861
H 12.1335 32.8569 5.2587
H 13.4464 13.1874 24.7525
H 13.2307 31.5811 14.85
H 29.3741 21.1234 4.07058
H 16.07 11.5843 18.0409
H 24.3831 33.654 24.5328
H 31.0719 17.2137 19.0057
H 17.1337 15.7471 18.6112
H 15.2404 29.0943 20.5742
H 16.9754 33.3663 1.16828
H 33.2666 12.3668 23.1374
H 11.7892 29.1427 1.53401
H 22.4773 25.5357 4.52825
H 33.4493 3.24659 9.62522
H 27.312 2.64087 21.3629
H 0.275548 23.1639 18.1805
H 14.9366 6.79489 4.69881
H 13.0341 25.9839 1.36391
H 8.61331 17.1876 28.0094
H 33.4278 28.0387 10.2773
H 1.63266 8.43936 18.5253
H 30.2268 11.7078 1.13312
H 5.54573 29.8741 7.16082
H 9.28772 16.7674 7.60747
H 16.6946 32.516 22.1996
H 25.7929 14.8202 18.8256
H 1.80968 10.981 13.7895
H 30.9321 27.551 8.79462
H 4.42131 16.798 12.8879
H 24.4639 9.79962 21.2279
H 27.6443 10.6406 13.1337
H 11.7109 27.7768 22.7894
H 12.9194 15.6118 10.3381
H 31.0283 16.6262 25.7036
H 3.67973 13.4018 29.63
H 12.2872 31.2279 18.5165
H 4.77217 6.8056 32.3108
H 33.7135 8.17464 0.562498
H 12.6526 28.7842 16.3372
H 18.3917 0.628101 30.6513
H 6.62287 30.1684 15.0238
H 5.03365 8.15505 27.2282
H 16.1062 3.05852 21.9467
H 21.5553 19.8983 24.7424
H 12.0754 23.1677 24.0845
H 5.52715 4.55327 15.3075
H 1.43186 27.1502 5.70511
H 28.3028 11.0653 22.3292
H 14.3074 26.6243 3.85431
H 33.8299 6.18241 25.9782
H 9.0546 8.31325 3.42995
H 11.7238 9.58942 32.9821
H 7.27914 20.6319 7.71432
H 6.46641 13.6734 14.0722
H 5.79356 10.1826 21.6715
H 5.1609 26.1927 30.0991
H 32.6617 0.615341 19.8462
H 26.1113 11.1617 4.3949
H 9.94119 28.844 7.85742
H 17.0922 0.0547797 0.427117
H 9.75817 3.36091 13.1007
H 12.0848 24.4913 2.24238
H 17.4965 14.4363 23.4879
H 8.64664 13.6716 9.00571
H 31.8126 16.0879 20.8047
H 16.6297 17.5195 8.34291
H 11.3389 17.1056 20.2955
H 10.561 32.7905 7.91349
H 25.4324 10.9822 10.8361
100
The is an optional comment line that can be empty. The reason we use H is so particles get smaller in Ovito
H 4.65024 28.4027 33.0945
H 7.62265 10.8331 18.019
H 6.14289 33.4523 33.5683
H 32.58 25.6868 33.1929
H 1.92853 28.9911 12.0787
H 0.271226 4.28767 21.6051
H -33.2221 46.8552 110.134
H 7.61634 1.19346 33.0709
H 593.88 -2212.29 -92.2592
H 13.8624 5.5566 9.924
H 27.4149 10.48 29.9506
H 5.30222 33.9893 27.9467
H 3.61524 26.0924 16.7168
H 22.6618 4.72161 7.41543
H 2.12478 1.33438 13.9797
H 15.2729 16.1202 26.3539
H 31.2229 27.7628 23.9929
H 0.0429318 24.2223 21.8847
H 19.1836 33.9613 16.9062
H 29.3657 27.2152 0.79888
H 25.1284 26.8762 31.0895
H 14.7999 19.2955 15.2714
H 7.51803 24.6968 4.91941
H 27.9185 33.5387 11.4776
H 10.3243 0.496882 7.46981
H 34.332 29.1664 33.4843
H 26.4757 33.7894 2.14676
H 27.1504 20.0354 25.3183
H 24.0666 23.3188 13.2782
H 18.978 7.44648 18.5619
H 14.9003 -2.51167 15.4401
H 13.8616 32.4346 2.30484
H 13.2685 13.5054 24.564
H 27.4899 38.2713 -4.71109
H 29.206 21.3608 4.11116
H 17.5599 11.8124 17.379
H 24.2407 33.336 24.5073
H 26.7137 36.0243 -9.79825
H 20.7881 14.8296 17.3329
H 14.0542 31.3467 23.8593
H 17.2574 33.1515 0.823306
H 32.2246 11.8692 22.7094
H 9.79848 30.9863 2.64929
H 14.8346 25.1571 3.16559
H 33.4067 2.99718 9.81882
H 27.5785 2.68813 21.7408
H 0.65419 23.6246 18.075
H 14.7444 6.93197 4.77196
H 61.3982 96.9392 -45.2562
H 8.80583 17.2406 27.625
H 38.2171 28.966 13.1129
H 2.1771 8.66893 18.6775
H 27.9017 11.9905 0.990164
H 5.6588 28.4483 7.57526
H 10.8418 10.9107 12.3867
H 17.6029 35.5598 23.64
H 32.9972 15.4624 27.1417
H 2.01602 10.4996 13.9337
H 26.0557 26.35 5.54487
H 4.64538 16.704 12.8631
H 24.89 9.96904 21.0891
H 3.79123 -8.84065 10.9999
H 12.4862 27.6073 22.6656
H 27.0944 12.538 14.9979
H 123.212 -4.42897 25.4938
H 4.03082 13.3474 29.6583
H 12.1062 34.3243 37.5406
H 5.11326 6.88511 31.8397
H 35.217 -0.166394 -0.839846
H -583.431 2255.89 124.721
H 18.3714 0.484947 30.7413
H 6.68361 29.9335 15.0653
H 5.12232 8.24459 27.4552
H 15.9752 3.39475 21.4731
H 21.1919 19.8686 24.5349
H 12.1157 23.5303 23.9823
H 5.50028 3.85479 15.0938
H 2.34767 27.183 6.15099
H 28.2207 11.5108 22.0478
H 14.7984 27.5919 6.18922
H 33.8721 6.09127 26.3596
H 9.18244 8.6307 3.31231
H 11.1024 9.58099 32.7864
H 6.77262 22.0271 9.1039
H 6.52098 13.3539 13.4307
H 5.08596 9.84802 22.0342
H 5.00828 26.0835 29.9181
H 32.6994 0.876026 20.1599
H 26.3123 11.3879 4.47622
H 9.22422 29.4382 7.57408
H 17.0555 0.446694 0.619033
H 9.30925 3.70752 12.9948
H -51.8107 -36.6926 25.8704
H 17.1986 14.5045 23.3559
H 4.34962 8.44554 10.6288
H 41.6394 16.5831 -25.3749
H 15.9519 17.4209 8.62746
H 6.90447 18.5438 21.3507
H 8.6583 32.1957 11.1206
H 23.6351 11.3743 8.63357
100
The is an optional comment line that can be empty. The reason we use H is so particles get smaller in Ovito
H 4.95618 28.9685 32.942
H 6.59587 10.9499 17.4863
H 5.677 32.397 32.6379
H 32.6934 27.7621 33.0361
H 0.956691 30.6209 14.0087
H 0.671718 5.20736 21.134
H -96.3497 76.5586 193.091
H 1.89454 -5.95413 45.1263
H 1173.6 -4447.57 -200.582
H 13.0342 5.19388 9.15882
H 27.7163 10.1894 30.0883
H 5.63714 33.9645 28.4432
H 2.76863 26.6864 16.2241
H 22.7104 5.32309 7.69364
H 2.45922 1.31525 14.1646
H 14.9432 16.0046 25.9002
H 31.0563 28.0171 23.9887
H 0.132251 24.255 21.8059
H 26.2825 48.42 11.5971
H 28.5145 26.8572 1.29849
H 22.3395 25.7718 30.1464
H 13.6993 14.1906 11.1075
H 2.75211 23.3228 7.7435
H 28.2584 33.3933 11.6116
H 10.5402 0.797351 7.81139
H 37.235 28.359 34.3474
H 26.2428 33.9443 1.84733
H 26.9939 19.7593 25.6196
H 24.4891 23.4742 13.1539
H 18.4645 8.79518 19.0399
H 17.1419 -15.7979 8.73809
H 12.1229 31.2698 1.32274
H 12.2985 13.6234 24.415
H 41.8674 44.6919 -24.3565
H 28.9053 21.9113 4.14417
H 20.2862 12.0185 17.2241
H 24.0242 33.017 24.4738
H 29.7569 55.5834 -37.4472
H 23.8126 12.7511 16.2095
H 11.1046 35.4322 30.5729
H 20.3203 33.4184 -0.85794
H 32.0157 11.3998 22.6399
H 8.50854 32.3631 4.24279
H 6.06304 25.7195 -4.38743
H 33.3496 2.78447 10.0192
H 28.3182 2.66652 21.9796
H 0.976749 23.8587 17.9963
H 14.1375 6.92296 5.42812
H 109.812 167.895 -91.917
H 9.14009 17.0741 27.042
H 43.0644 29.9076 15.9877
H 3.21555 8.99754 17.9368
H 24.0483 12.5143 0.700128
H 7.40376 26.7246 8.49954
H 10.1479 5.1438 16.4951
H 18.6502 38.9504 25.3873
H 51.4132 17.1666 48.19
H 3.42299 9.64862 14.3447
H 21.2249 24.9839 1.95934
H 5.17684 15.9765 12.8649
H 24.6307 9.96785 20.5409
H -25.2945 -32.0759 8.04758
H 13.4577 27.6491 22.4587
H 34.2579 7.44031 9.58513
H 216.283 -25.2279 27.6551
H 4.67527 12.7695 29.4359
H 11.5672 37.5515 56.5356
H 5.73789 7.00225 31.3004
H 37.7236 -14.9039 -3.24394
H -1179.53 4482.98 233.106
H 18.3432 0.35254 30.8184
H 6.10722 28.7427 15.9594
H 5.11727 8.99306 27.5153
H 15.836 4.0699 20.5608
H 20.9783 19.6743 24.3318
H 11.9909 23.696 23.9026
H 5.7202 3.3541 14.7388
H 2.53211 26.7218 6.2539
H 27.6383 12.5514 21.6961
H 14.8532 28.7951 8.20487
H 33.8241 6.08757 26.6387
H 9.62567 8.8399 3.36341
H 10.2597 9.5046 32.472
H 6.41083 23.9417 11.1632
H 6.28138 12.3414 12.9745
H 4.77493 9.51845 21.9588
H 4.83251 26.2206 29.979
H 32.2599 1.34151 20.6468
H 26.1272 11.633 5.03088
H 8.55639 30.5931 7.36187
H 17.001 0.883128 0.856302
H 9.14938 4.61031 12.639
H -117.499 -96.6956 47.5884
H 17.568 14.627 22.6096
H -1.12439 3.01866 13.4614
H 56.1372 26.7486 -71.4475
H 15.7025 17.7532 7.70154
H 2.00575 20.1476 22.6174
H 7.05883 31.1354 12.162
H 22.3652 11.7018 5.55103
100
The is an optional comment line that can be empty. The reason we use H is so particles get smaller in Ovito
H 5.03551 28.5103 33.2426
H 5.59666 11.3747 16.1525
H 5.40464 32.0862 32.5827
H 33.8322 30.1157 33.1493
H 0.82657 31.1494 16.3503
H 1.1886 6.21614 20.9365
H -159.477 106.262 276.047
H -3.82738 -13.0987 57.1799
H 1753.33 -6682.85 -308.905
H 11.6711 5.06144 8.67836
H 28.0537 9.89175 30.1431
H 6.26419 34.3905 27.9536
H -0.0609785 27.518 15.0604
H 22.7485 6.11714 7.91026
H 3.15614 0.301653 14.7524
H 14.6377 15.856 25.1444
H 30.8597 28.2697 24.0072
H 0.438022 24.9871 21.6866
H 33.3823 62.875 6.28925
H 27.6019 26.0732 2.11463
H 19.5656 24.6421 29.156
H 11.7092 8.18837 9.17379
H -5.32227 22.1056 11.2969
H 28.5909 33.241 11.7365
H 10.7363 1.02057 8.34819
H 39.0972 27.2708 34.9169
H 25.8023 33.9981 1.39499
H 26.5684 19.4557 25.8485
H 24.9093 23.6251 13.0198
H 18.5594 11.1213 19.1212
H 19.3828 -29.0816 2.03567
H 9.47647 30.3291 1.1439
H 11.4695 14.0025 24.2468
H 56.2427 51.1123 -44.0068
H 28.4935 22.9548 3.91009
H 22.0266 11.6701 16.9854
H 23.7885 32.6976 24.4485
H 32.8021 75.1427 -65.0911
H 26.4518 10.2585 16.0871
H 7.91784 39.3697 37.2057
H 23.4904 33.6577 -2.32667
H 31.3239 11.1205 22.514
H 8.13466 33.6721 4.57646
H 0.135311 26.9179 -14.4196
H 33.5344 3.12686 10.0681
H 28.3085 2.97023 22.5275
H 0.70589 22.6135 18.5433
H 12.9993 7.30777 5.95886
H 158.225 238.85 -138.578
H 9.93124 16.5272 26.2198
H 47.9099 30.849 18.863
H 3.38704 8.5106 18.1925
H 20.7884 13.512 -0.929798
H 9.42687 26.9826 8.63133
H 8.76017 -0.600406 20.1219
H 19.7033 42.286 27.1418
H 69.8279 18.8705 69.2371
H 4.71479 7.4482 14.4422
H 16.5163 23.6309 -1.64696
H 5.64959 15.7232 12.993
H 24.8824 9.912 20.0455
H -54.3802 -55.311 5.09529
H 14.2214 27.5899 22.3379
H 41.1496 1.79503 4.33259
H 309.355 -46.0268 29.8164
H 5.64623 12.4624 29.7956
H 11.0277 40.7785 75.5297
H 6.25851 7.2156 31.0799
H 40.2301 -29.6412 -5.64783
H -1775.63 6710.08 341.491
H 18.313 0.227101 30.8885
H 7.27363 28.8872 16.3911
H 5.16499 9.36226 26.0635
H 15.83 5.13062 19.4782
H 20.8228 19.2671 24.1484
H 12.0491 23.9175 23.7801
H 6.01549 3.51385 15.0011
H 3.04475 26.0461 6.61454
H 27.4139 13.1937 21.3251
H 14.5944 30.0415 10.1173
H 33.6615 6.15104 26.7918
H 10.6912 8.7384 3.82557
H 9.25751 9.60881 32.0053
H 6.34694 24.9542 16.0393
H 7.24702 11.6558 12.6597
H 4.77443 9.21507 21.643
H 4.67087 26.2818 29.6951
H 32.5903 1.61245 20.8813
H 25.0459 11.9746 5.13995
H 7.50277 30.7679 8.61054
H 16.9235 1.36359 1.14247
H 10.0822 5.74002 11.7784
H -183.187 -156.699 69.3064
H 17.4454 14.812 22.2057
H -7.1814 -1.28586 16.092
H 70.6349 36.9141 -117.52
H 16.2723 18.7541 4.49132
H -3.06458 21.3373 23.9214
H 5.8989 29.8162 11.9114
H 21.3469 11.2877 4.36175
100
The is an optional comment line that can be empty. The reason we use H is so particles get smaller in Ovito
H 5.03631 27.6311 33.2629
H 5.2482 11.8612 13.696
H 5.18142 31.7142 33.1331
H 35.2393 32.3737 33.3387
H 0.658193 30.2836 18.2223
H 1.21245 6.29244 22.4458
H -222.605 135.965 359.004
H -9.54929 -20.2433 69.2335
H 2333.05 -8918.13 -417.227
H 12.7054 1.80825 5.31675
H 28.4477 9.56957 30.1042
H 6.90667 35.0319 26.7809
H -2.12596 29.467 14.4166
H 22.7339 7.22671 7.93819
H 4.03981 -0.522711 15.4969
H 13.4839 15.9177 24.7066
H 30.631 28.5307 24.0384
H 0.638324 25.6022 20.9531
H 40.482 77.33 0.981443
H 26.1601 26.7114 2.1387
H 16.7823 23.4617 28.071
H 9.03091 9.32608 9.07131
H -13.2984 20.9941 14.8358
H 28.9175 33.0786 11.8557
H 9.50893 -2.49835 9.10608
H 40.6847 26.2755 35.3971
H 24.943 33.9528 0.558399
H 25.8264 19.0964 25.9507
H 25.3315 23.7769 12.8757
H 20.0768 13.7271 18.5167
H 21.6237 -42.3652 -4.66676
H 6.52722 29.9802 1.75017
H 11.7208 13.0754 23.0107
H 70.6181 57.5328 -63.657
H 28.575 22.628 4.47375
H 21.8877 12.0313 15.7251
H 23.5698 32.3555 24.4252
H 35.8473 94.7019 -92.735
H 27.8402 7.80699 17.0792
H 4.67808 43.2468 43.8004
H 27.0916 33.9307 -3.39187
H 29.8545 10.8887 22.2677
H 7.93802 33.6492 5.17268
H -5.79197 28.1165 -24.4508
H 33.8211 3.56148 10.0468
H 28.0799 3.48874 23.1595
H 0.369969 21.9699 19.5236
H 13.4025 6.428 6.78387
H 206.639 309.806 -185.239
H 10.5667 17.106 26.2672
H 52.755 31.7903 21.7383
H 4.33769 8.77587 17.6293
H 17.891 14.9352 -4.04308
H 10.5602 28.5029 9.1326
H 7.18284 -6.20969 23.4811
H 20.7588 45.6134 28.8948
H 88.2426 20.5744 90.2843
H 5.93967 6.66017 14.7596
H 11.8152 22.2595 -5.21108
H 6.27323 15.276 13.3078
H 27.3827 9.00073 20.8846
H -83.4659 -78.5462 2.143
H 14.9587 27.2189 22.3204
H 47.9293 -3.93757 -0.841658
H 402.426 -66.8256 31.9777
H 6.34547 11.8919 29.9585
H 10.4882 44.0055 94.5238
H 5.27093 7.28516 29.8377
H 42.7365 -44.3785 -8.0517
H -2371.73 8937.17 449.876
H 18.2818 0.106898 30.9538
H 7.65012 28.5993 15.5213
H 5.52028 9.32458 24.6581
H 15.8587 6.37896 18.3509
H 20.683 18.5982 23.9796
H 12.12 24.3633 23.5803
H 7.01151 2.85932 15.1048
H 3.81353 25.4768 7.22956
H 27.3016 13.6144 20.6916
H 13.9758 31.1549 11.9235
H 33.344 6.26298 26.8113
H 10.5393 9.31617 3.50225
H 9.89112 10.6916 31.943
H 6.15178 26.8148 20.8375
H 8.46594 10.8719 12.3424
H 4.00015 8.30864 21.4159
H 4.58349 26.644 29.757
H 33.1723 1.85686 21.0939
H 23.6552 12.2452 5.11706
H 7.36426 30.514 8.61728
H 16.8056 1.88941 1.49227
H 9.36552 7.37216 12.8899
H -248.876 -216.702 91.0245
H 17.3712 14.8558 21.6823
H -13.1542 -5.59545 18.7287
H 85.1326 47.0796 -163.592
H 16.8546 19.7349 1.24376
H -7.84625 22.292 25.0995
H 5.02319 27.8679 13.0546
H 20.2458 10.2334 5.03009
100
The is an optional comment line that can be empty. The reason we use H is so particles get smaller in Ovito
H 5.10358 26.9204 33.5025
H 4.36769 9.98597 12.0646
H 4.91869 31.0856 33.411
H 36.6744 34.6018 33.5345
H -0.083978 29.2722 19.248
H 0.258868 5.6138 24.2626
H -285.732 165.669 441.96
H -15.2712 -27.3878 81.2871
H 2912.77 -11153.4 -525.55
H 13.7789 -0.289153 2.05357
H 28.9545 9.17615 29.9047
H 7.51759 35.5782 25.7048
H -3.46543 31.7006 14.635
H 22.9794 9.00785 7.71985
H 4.4601 -1.91864 16.2173
H 13.6601 15.6628 23.5272
H 30.3614 28.8065 24.0745
H 1.27652 25.3243 19.7502
H 47.5818 91.785 -4.32636
H 24.8859 27.2257 2.25601
H 13.7911 22.3187 26.6244
H 7.29457 9.27651 8.14941
H -21.2682 19.8849 18.3788
H 29.2379 32.904 11.9723
H 8.07451 -6.57475 9.94393
H 42.241 25.3083 35.8655
H 24.5054 33.8518 -0.716955
H 24.5501 18.6207 25.7888
H 25.759 23.9296 12.7152
H 21.8282 16.0008 17.7084
H 23.8646 -55.6489 -11.3692
H 3.78634 30.1138 3.05483
H 11.9318 12.524 22.0429
H 84.9934 63.9532 -83.3073
H 28.4643 22.4986 4.94382
H 21.6802 12.4317 14.9541
H 23.3792 31.9839 24.3979
H 38.8925 114.261 -120.379
H 29.2832 5.46537 17.8614
H 1.43823 47.1225 50.3938
H 30.2799 34.1801 -3.98861
H 30.5147 11.5022 23.1154
H 7.51145 32.581 5.86893
H -11.7192 29.3151 -34.482
H 34.0975 4.00149 10.0373
H 28.356 4.23 23.5943
H 0.10926 22.0816 20.8904
H 12.9128 5.19507 7.34284
H 255.053 380.762 -231.899
H 10.5317 17.5239 26.3662
H 57.5999 32.7316 24.6138
H 4.82527 9.58224 16.3124
H 14.9848 16.4117 -7.06702
H 11.5267 30.8387 10.0677
H 5.5993 -11.8035 26.8261
H 21.8144 48.9392 30.6474
H 106.657 22.2783 111.331
H 6.00151 5.86094 14.9171
H 7.13384 20.8702 -8.74582
H 7.55082 15.8601 13.1221
H 27.6767 6.55985 21.0437
H -112.552 -101.781 -0.809293
H 15.7454 27.0405 22.2809
H 54.7087 -9.67002 -6.01564
H 495.497 -87.6245 34.139
H 5.93844 11.7143 29.0892
H 9.94868 47.2325 113.518
H 4.58244 7.9204 27.9147
H 45.2429 -59.1159 -10.4556
H -2967.83 11164.3 558.261
H 18.2505 -0.0090452 31.0156
H 7.91385 28.1728 14.7797
H 6.03549 9.37304 25.0343
H 15.8694 7.71518 17.2003
H 20.5915 17.5576 23.7311
H 12.2457 24.4346 23.6795
H 8.84498 3.17234 15.0515
H 4.82837 25.2586 8.08767
H 26.8594 14.3807 19.9878
H 12.7145 31.8404 13.2926
H 32.7596 6.41553 26.6906
H 10.6235 9.47051 4.08545
H 11.3759 10.8929 32.3478
H 5.7364 28.8189 25.2496
H 9.12126 12.4376 13.511
H 4.42792 8.26657 20.8355
H 4.523 27.1644 29.6604
H 33.3012 2.34213 21.5289
H 21.9038 11.8717 5.37185
H 7.36599 29.8382 8.61158
H 16.959 2.79638 1.91823
H 9.8813 8.01105 12.699
H -314.564 -276.705 112.743
H 17.1892 15.5297 21.814
H -19.1261 -9.9046 21.3654
H 99.6303 57.2451 -209.665
H 17.4367 20.6628 -2.08132
H -12.5905 23.2623 26.2512
H 4.35587 26.0669 13.6744
H 19.1516 9.14411 5.68255
100
The is an optional comment line that can be empty. The reason we use H is so particles get smaller in Ovito
H 5.25289 26.0971 34.2297
H 5.3552 7.56786 11.6089
H 4.67421 29.7403 33.0638
H 38.1115 36.8241 33.7298
H -1.08619 29.4734 19.6191
H 0.03539 5.37806 26.058
H -348.86 195.372 524.917
H -20.9931 -34.5324 93.3407
H 3492.5 -13388.7 -633.873
H 14.0286 -2.63653 -0.691085
H 29.8203 8.49859 29.222
H 8.09258 36.005 24.6521
H -4.60519 33.8243 15.0892
H 23.8444 10.5071 8.0105
H 5.03586 -3.11649 16.887
H 12.7039 15.6039 22.9779
H 30.0349 29.1031 24.1119
H 2.36359 24.2543 18.7823
H 54.6816 106.24 -9.63417
H 23.7167 27.6626 2.42829
H 10.6284 21.1828 25.118
H 5.90924 9.2212 8.44145
H -29.2361 18.7764 21.9233
H 29.5514 32.7144 12.088
H 6.63418 -10.6223 10.7987
H 43.7937 24.3459 36.3323
H 24.2623 33.6826 -2.11543
H 23.19 18.3139 25.6724
H 26.1941 24.0763 12.5283
H 23.59 17.0241 16.6713
H 26.1055 -68.9325 -18.0716
H 1.60262 30.5032 4.91166
H 12.3988 12.3889 21.2493
H 99.3688 70.3737 -102.958
H 28.2291 22.5265 5.35994
H 21.5802 13.9402 15.0996
H 23.2285 31.5761 24.3631
H 41.9377 133.82 -148.023
H 30.9559 3.03811 18.9145
H -1.80159 50.9981 56.9872
H 33.2751 34.4166 -4.42234
H 30.596 11.87 23.6506
H 6.93486 31.6141 5.91755
H -17.6465 30.5137 -44.5131
H 34.3615 4.44556 10.0458
H 29.8882 3.63988 25.3532
H -0.214869 21.9171 22.2929
H 12.1916 4.29168 7.69396
H 303.466 451.717 -278.56
H 11.2549 17.29 26.0713
H 62.4447 33.6728 27.4893
H 5.81937 9.91717 14.5718
H 12.0965 17.9559 -10.0188
H 10.9021 32.6504 10.1119
H 4.01576 -17.3957 30.1699
H 22.87 52.2646 32.3999
H 125.072 23.9822 132.379
H 6.4558 6.28116 14.661
H 2.46852 19.4732 -12.2739
H 8.06797 17.2821 12.8811
H 27.8833 6.00548 20.1336
H -141.637 -125.017 -3.76158
H 16.3759 26.4966 22.4131
H 61.4881 -15.4025 -11.1896
H 588.569 -108.423 36.3003
H 6.06222 11.8504 27.3583
H 9.40917 50.4594 132.512
H 3.04453 7.14413 26.3366
H 47.7492 -73.8532 -12.8594
H -3563.93 13391.4 666.646
H 18.2196 -0.120744 31.0747
H 7.31861 27.3838 13.1219
H 6.38867 9.99485 24.3008
H 15.7873 9.14347 16.0147
H 20.6307 16.0043 23.2701
H 12.4969 24.9843 23.5404
H 10.1012 4.25626 14.7598
H 5.97107 25.4928 9.46585
H 26.2838 14.9107 19.401
H 11.413 32.5546 15.1045
H 31.3789 6.63367 26.3868
H 10.4839 9.29836 5.46238
H 12.5725 11.1371 32.5427
H 5.62854 31.7622 28.8312
H 9.59944 11.8457 14.5339
H 5.26078 8.63592 20.5608
H 4.04676 27.6001 30.3629
H 32.6192 3.29778 22.0722
H 19.9509 11.3585 5.63717
H 8.14193 28.5549 9.85431
H 17.8889 4.18263 2.02911
H 9.2521 8.49171 12.2614
H -380.253 -336.708 134.461
H 17.4056 16.1755 21.2678
H -25.098 -14.2137 24.0022
H 114.128 67.4106 -255.737
H 17.9897 21.5301 -5.4736
H -17.333 24.2325 27.3998
H 4.7045 24.8801 14.2874
H 17.5034 8.38534 5.84442
100
The is an optional comment line that can be empty. The reason we use H is so particles get smaller in Ovito
H 5.47232 25.5319 35.7851
H 5.74975 5.18007 10.7903
H 4.90336 29.1114 33.2378
H 39.5484 39.0449 33.9248
H -1.94484 29.3934 19.908
H -1.08522 4.63466 27.6897
H -411.988 225.075 607.874
H -26.715 -41.677 105.394
H 4072.22 -15624 -742.195
H 14.3391 -4.89271 -3.40883
H 30.0883 8.62466 29.8516
H 8.61314 36.3157 23.681
H -5.68705 35.8857 15.6074
H 23.683 12.0527 7.83251
H 5.63133 -4.28002 17.5409
H 12.8427 15.7542 22.1023
H 29.6212 29.4266 24.1494
H 3.2339 23.1252 17.7384
H 61.7814 120.695 -14.942
H 22.5979 28.0943 2.59813
H 8.33971 22.3638 23.1785
H 5.73803 9.46432 8.60326
H -37.2032 17.6681 25.4682
H 29.8567 32.5062 12.2039
H 5.19201 -14.6592 11.6608
H 45.3458 23.3844 36.7986
H 24.0364 33.4618 -3.48265
H 22.8654 18.4245 26.1398
H 26.6385 24.1946 12.2947
H 25.4228 17.7267 15.2344
H 28.3465 -82.2162 -24.774
H -0.0534993 30.9662 6.94797
H 12.8727 11.8633 20.0797
H 113.744 76.7941 -122.608
H 27.9276 22.621 5.80973
H 21.6284 15.8709 15.7436
H 23.1398 31.1194 24.3174
H 44.9829 153.38 -175.667
H 31.4115 1.36622 19.8625
H -5.04142 54.8738 63.5806
H 36.2475 34.6505 -4.84734
H 30.5695 11.7051 24.3412
H 6.43811 29.9228 6.98789
H -23.5737 31.7123 -54.5442
H 34.6156 4.89038 10.0711
H 30.7044 1.99189 26.7517
H -0.0481247 22.2582 23.0455
H 11.297 4.01228 8.05009
H 351.88 522.673 -325.221
H 11.5143 15.9152 26.1664
H 67.2895 34.614 30.3649
H 6.01693 10.3259 13.2673
H 9.22508 19.521 -12.9478
H 9.49858 33.6825 10.8892
H 2.43227 -22.9875 33.5135
H 23.9255 55.5898 34.1523
H 143.487 25.6861 153.426
H 7.24366 7.53186 15.4367
H -2.18746 18.0743 -15.7995
H 8.68603 18.2497 12.7605
H 29.5543 4.3771 19.5348
H -170.723 -148.252 -6.71387
H 17.4554 26.2364 22.3786
H 68.2675 -21.1349 -16.3636
H 681.64 -129.222 38.4616
H 5.87444 12.286 26.6215
H 8.86967 53.6864 151.506
H 3.35968 7.95895 24.3849
H 50.2555 -88.5905 -15.2633
H -4160.03 15618.5 775.031
H 18.1895 -0.228307 31.1314
H 6.85176 27.1259 13.7078
H 6.55207 9.70793 23.6258
H 15.4425 10.6759 14.8546
H 20.3428 14.3421 22.4089
H 11.608 24.2474 23.8275
H 11.8503 6.01286 13.8239
H 5.70582 23.7209 10.4282
H 25.2874 15.2424 19.1097
H 9.85871 33.0993 15.8372
H 30.7982 7.79093 24.8683
H 9.93718 8.67288 7.62582
H 13.7241 11.403 32.673
H 5.61848 34.7457 32.167
H 9.66951 11.309 15.7018
H 6.09426 8.67855 18.9597
H 2.99861 27.0977 29.8261
H 32.1742 4.54759 22.3875
H 18.5714 10.4534 6.32591
H 10.3633 30.1553 9.50608
H 18.6248 5.8814 2.55085
H 9.28473 7.45454 11.3714
H -445.941 -396.711 156.179
H 16.0795 16.2168 20.471
H -31.0698 -18.5228 26.6389
H 128.626 77.576 -301.81
H 18.5193 22.3801 -8.88541
H -22.0755 25.2023 28.5479
H 4.92046 23.6899 14.6183
H 16.1548 7.55092 5.78027
